# File generated by Flopy version 3.9.1 on 01/27/2025 at 13:10:23.
BEGIN options
END options

BEGIN griddata
  strt
    CONSTANT       1.00000000
END griddata

