# File generated by Flopy version 3.9.1 on 01/27/2025 at 13:10:23.
BEGIN options
  TIME_UNITS  seconds
END options

BEGIN dimensions
  NPER  1
END dimensions

BEGIN perioddata
     120.00000000  1       1.00000000
END perioddata

