# File generated by Flopy version 3.9.1 on 01/27/2025 at 13:10:23.
BEGIN options
  SAVE_SPECIFIC_DISCHARGE
  SAVE_SATURATION
END options

BEGIN griddata
  icelltype
    CONSTANT  0
  k
    CONSTANT       0.01000000
END griddata

