# File generated by Flopy version 3.7.0 on 01/31/2025 at 11:31:47.
BEGIN options
  BUDGET  FILEOUT  flow.bud
  HEAD  FILEOUT  flow.hds
END options

BEGIN period  1
  SAVE  HEAD  ALL
  SAVE  BUDGET  ALL
END period  1

