# File generated by Flopy version 3.7.0 on 01/31/2025 at 11:31:47.
BEGIN options
  TIME_UNITS  days
END options

BEGIN dimensions
  NPER  1
END dimensions

BEGIN perioddata
      40.00000000  40       1.00000000
END perioddata

