# File generated by Flopy version 3.7.0 on 01/31/2025 at 11:31:47.
BEGIN options
END options

