# File generated by Flopy version 3.7.0 on 01/31/2025 at 11:31:47.
BEGIN options
  auxiliary  CONCENTRATION
END options

BEGIN dimensions
  MAXBOUND  1
END dimensions

BEGIN period  1
  1 1 1 2.00000000E-01 1.00000000E+00
END period  1

